*SPEF "ieee 1481-1999"
*DESIGN "spm"
*DATE "11:11:11 Fri 11 11, 1111"
*VENDOR "OpenRCX"
*PROGRAM "Parallel Extraction"
*VERSION "1.0"
*DESIGN_FLOW "NAME_SCOPE LOCAL" "PIN_CAP NONE"
*DIVIDER /
*DELIMITER :
*BUS_DELIMITER []
*T_UNIT 1 NS
*C_UNIT 1 PF
*R_UNIT 1 OHM
*L_UNIT 1 HENRY

*NAME_MAP
*3 clk
*4 p
*5 rst
*6 x[0]
*7 x[10]
*8 x[11]
*9 x[12]
*10 x[13]
*11 x[14]
*12 x[15]
*13 x[16]
*14 x[17]
*15 x[18]
*16 x[19]
*17 x[1]
*18 x[20]
*19 x[21]
*20 x[22]
*21 x[23]
*22 x[24]
*23 x[25]
*24 x[26]
*25 x[27]
*26 x[28]
*27 x[29]
*28 x[2]
*29 x[30]
*30 x[31]
*31 x[3]
*32 x[4]
*33 x[5]
*34 x[6]
*35 x[7]
*36 x[8]
*37 x[9]
*38 y
*39 _000_
*40 _001_
*41 _002_
*42 _003_
*43 _004_
*44 _005_
*45 _006_
*46 _007_
*47 _008_
*48 _009_
*49 _010_
*50 _011_
*51 _012_
*52 _013_
*53 _014_
*54 _015_
*55 _016_
*56 _017_
*57 _018_
*58 _019_
*59 _020_
*60 _021_
*61 _022_
*62 _023_
*63 _024_
*64 _025_
*65 _026_
*66 _027_
*67 _028_
*68 _029_
*69 _030_
*70 _031_
*71 _032_
*72 _033_
*73 _034_
*74 _035_
*75 _036_
*76 _037_
*77 _038_
*78 _039_
*79 _040_
*80 _041_
*81 _042_
*82 _043_
*83 _044_
*84 _045_
*85 _046_
*86 _047_
*87 _048_
*88 _049_
*89 _050_
*90 _051_
*91 _052_
*92 _053_
*93 _054_
*94 _055_
*95 _056_
*96 _057_
*97 _058_
*98 _059_
*99 _060_
*100 _061_
*101 _062_
*102 _063_
*103 _064_
*104 _065_
*105 _066_
*106 _067_
*107 _068_
*108 _069_
*109 _070_
*110 _071_
*111 _072_
*112 _073_
*113 _074_
*114 _075_
*115 _076_
*116 _077_
*117 _078_
*118 _079_
*119 _080_
*120 _081_
*121 _082_
*122 _083_
*123 _084_
*124 _085_
*125 _086_
*126 _087_
*127 _088_
*128 _089_
*129 _090_
*130 _091_
*131 _092_
*132 _093_
*133 _094_
*134 _095_
*135 _096_
*136 _097_
*137 _098_
*138 _099_
*139 _100_
*140 _101_
*141 _102_
*142 _103_
*143 _104_
*144 _105_
*145 _106_
*146 _107_
*147 _108_
*148 _109_
*149 _110_
*150 _111_
*151 _112_
*152 _113_
*153 _114_
*154 _115_
*155 _116_
*156 _117_
*157 _118_
*158 _119_
*159 _120_
*160 _121_
*161 _122_
*162 _123_
*163 _124_
*164 _125_
*165 _126_
*166 _127_
*167 _128_
*168 _129_
*169 _130_
*170 _131_
*171 _132_
*172 _133_
*173 _134_
*174 _135_
*175 _136_
*176 _137_
*177 _138_
*178 _139_
*179 _140_
*180 _141_
*181 _142_
*182 _143_
*183 _144_
*184 _145_
*185 _146_
*186 _147_
*187 _148_
*188 _149_
*189 _150_
*190 _151_
*191 _152_
*192 _153_
*193 _154_
*194 _155_
*195 _156_
*196 _157_
*197 _158_
*198 _159_
*199 _160_
*200 _161_
*201 _162_
*202 _163_
*203 _164_
*204 _165_
*205 _166_
*206 _167_
*207 _168_
*208 _169_
*209 _170_
*210 _171_
*211 _172_
*212 _173_
*213 _174_
*214 _175_
*215 _176_
*216 _177_
*217 _178_
*218 _179_
*219 _180_
*220 _181_
*221 _182_
*222 _183_
*223 _184_
*224 _185_
*225 _186_
*226 _187_
*227 _188_
*228 _189_
*229 _190_
*230 _191_
*231 _192_
*232 _193_
*233 _194_
*234 _195_
*235 _196_
*236 _197_
*237 _198_
*238 _199_
*239 _200_
*240 _201_
*241 _202_
*242 _203_
*243 _204_
*244 _205_
*245 clknet_0_clk
*246 clknet_3_0__leaf_clk
*247 clknet_3_1__leaf_clk
*248 clknet_3_2__leaf_clk
*249 clknet_3_3__leaf_clk
*250 clknet_3_4__leaf_clk
*251 clknet_3_5__leaf_clk
*252 clknet_3_6__leaf_clk
*253 clknet_3_7__leaf_clk
*254 csa0\.hsum2
*255 csa0\.sc
*256 csa0\.y
*257 genblk1\[10\]\.csa\.hsum2
*258 genblk1\[10\]\.csa\.sc
*259 genblk1\[10\]\.csa\.sum
*260 genblk1\[10\]\.csa\.y
*261 genblk1\[11\]\.csa\.hsum2
*262 genblk1\[11\]\.csa\.sc
*263 genblk1\[11\]\.csa\.y
*264 genblk1\[12\]\.csa\.hsum2
*265 genblk1\[12\]\.csa\.sc
*266 genblk1\[12\]\.csa\.y
*267 genblk1\[13\]\.csa\.hsum2
*268 genblk1\[13\]\.csa\.sc
*269 genblk1\[13\]\.csa\.y
*270 genblk1\[14\]\.csa\.hsum2
*271 genblk1\[14\]\.csa\.sc
*272 genblk1\[14\]\.csa\.y
*273 genblk1\[15\]\.csa\.hsum2
*274 genblk1\[15\]\.csa\.sc
*275 genblk1\[15\]\.csa\.y
*276 genblk1\[16\]\.csa\.hsum2
*277 genblk1\[16\]\.csa\.sc
*278 genblk1\[16\]\.csa\.y
*279 genblk1\[17\]\.csa\.hsum2
*280 genblk1\[17\]\.csa\.sc
*281 genblk1\[17\]\.csa\.y
*282 genblk1\[18\]\.csa\.hsum2
*283 genblk1\[18\]\.csa\.sc
*284 genblk1\[18\]\.csa\.y
*285 genblk1\[19\]\.csa\.hsum2
*286 genblk1\[19\]\.csa\.sc
*287 genblk1\[19\]\.csa\.y
*288 genblk1\[1\]\.csa\.hsum2
*289 genblk1\[1\]\.csa\.sc
*290 genblk1\[1\]\.csa\.y
*291 genblk1\[20\]\.csa\.hsum2
*292 genblk1\[20\]\.csa\.sc
*293 genblk1\[20\]\.csa\.y
*294 genblk1\[21\]\.csa\.hsum2
*295 genblk1\[21\]\.csa\.sc
*296 genblk1\[21\]\.csa\.y
*297 genblk1\[22\]\.csa\.hsum2
*298 genblk1\[22\]\.csa\.sc
*299 genblk1\[22\]\.csa\.y
*300 genblk1\[23\]\.csa\.hsum2
*301 genblk1\[23\]\.csa\.sc
*302 genblk1\[23\]\.csa\.y
*303 genblk1\[24\]\.csa\.hsum2
*304 genblk1\[24\]\.csa\.sc
*305 genblk1\[24\]\.csa\.y
*306 genblk1\[25\]\.csa\.hsum2
*307 genblk1\[25\]\.csa\.sc
*308 genblk1\[25\]\.csa\.y
*309 genblk1\[26\]\.csa\.hsum2
*310 genblk1\[26\]\.csa\.sc
*311 genblk1\[26\]\.csa\.y
*312 genblk1\[27\]\.csa\.hsum2
*313 genblk1\[27\]\.csa\.sc
*314 genblk1\[27\]\.csa\.y
*315 genblk1\[28\]\.csa\.hsum2
*316 genblk1\[28\]\.csa\.sc
*317 genblk1\[28\]\.csa\.y
*318 genblk1\[29\]\.csa\.hsum2
*319 genblk1\[29\]\.csa\.sc
*320 genblk1\[29\]\.csa\.y
*321 genblk1\[2\]\.csa\.hsum2
*322 genblk1\[2\]\.csa\.sc
*323 genblk1\[2\]\.csa\.y
*324 genblk1\[30\]\.csa\.hsum2
*325 genblk1\[30\]\.csa\.sc
*326 genblk1\[30\]\.csa\.y
*327 genblk1\[3\]\.csa\.hsum2
*328 genblk1\[3\]\.csa\.sc
*329 genblk1\[3\]\.csa\.y
*330 genblk1\[4\]\.csa\.hsum2
*331 genblk1\[4\]\.csa\.sc
*332 genblk1\[4\]\.csa\.y
*333 genblk1\[5\]\.csa\.hsum2
*334 genblk1\[5\]\.csa\.sc
*335 genblk1\[5\]\.csa\.y
*336 genblk1\[6\]\.csa\.hsum2
*337 genblk1\[6\]\.csa\.sc
*338 genblk1\[6\]\.csa\.y
*339 genblk1\[7\]\.csa\.hsum2
*340 genblk1\[7\]\.csa\.sc
*341 genblk1\[7\]\.csa\.y
*342 genblk1\[8\]\.csa\.hsum2
*343 genblk1\[8\]\.csa\.sc
*344 genblk1\[8\]\.csa\.y
*345 genblk1\[9\]\.csa\.hsum2
*346 genblk1\[9\]\.csa\.sc
*347 net1
*348 net10
*349 net11
*350 net12
*351 net13
*352 net14
*353 net15
*354 net16
*355 net17
*356 net18
*357 net19
*358 net2
*359 net20
*360 net21
*361 net22
*362 net23
*363 net24
*364 net25
*365 net26
*366 net27
*367 net28
*368 net29
*369 net3
*370 net30
*371 net31
*372 net32
*373 net33
*374 net34
*375 net35
*376 net36
*377 net37
*378 net38
*379 net39
*380 net4
*381 net40
*382 net41
*383 net42
*384 net43
*385 net44
*386 net45
*387 net46
*388 net47
*389 net48
*390 net49
*391 net5
*392 net50
*393 net51
*394 net52
*395 net53
*396 net54
*397 net55
*398 net56
*399 net57
*400 net58
*401 net59
*402 net6
*403 net60
*404 net61
*405 net62
*406 net63
*407 net64
*408 net65
*409 net66
*410 net67
*411 net68
*412 net69
*413 net7
*414 net70
*415 net71
*416 net72
*417 net73
*418 net74
*419 net75
*420 net76
*421 net77
*422 net78
*423 net79
*424 net8
*425 net80
*426 net81
*427 net82
*428 net83
*429 net84
*430 net85
*431 net86
*432 net87
*433 net88
*434 net9
*435 tcmp\.z
*436 FILLER_0_0_109
*437 FILLER_0_0_113
*438 FILLER_0_0_125
*439 FILLER_0_0_137
*440 FILLER_0_0_141
*441 FILLER_0_0_15
*442 FILLER_0_0_153
*443 FILLER_0_0_157
*444 FILLER_0_0_165
*445 FILLER_0_0_169
*446 FILLER_0_0_181
*447 FILLER_0_0_193
*448 FILLER_0_0_27
*449 FILLER_0_0_29
*450 FILLER_0_0_3
*451 FILLER_0_0_41
*452 FILLER_0_0_53
*453 FILLER_0_0_57
*454 FILLER_0_0_69
*455 FILLER_0_0_81
*456 FILLER_0_0_85
*457 FILLER_0_0_97
*458 FILLER_0_10_124
*459 FILLER_0_10_132
*460 FILLER_0_10_162
*461 FILLER_0_10_174
*462 FILLER_0_10_29
*463 FILLER_0_10_83
*464 FILLER_0_10_85
*465 FILLER_0_10_89
*466 FILLER_0_11_107
*467 FILLER_0_11_111
*468 FILLER_0_11_159
*469 FILLER_0_11_189
*470 FILLER_0_11_193
*471 FILLER_0_11_22
*472 FILLER_0_11_3
*473 FILLER_0_11_54
*474 FILLER_0_11_57
*475 FILLER_0_11_66
*476 FILLER_0_11_78
*477 FILLER_0_11_86
*478 FILLER_0_12_111
*479 FILLER_0_12_123
*480 FILLER_0_12_149
*481 FILLER_0_12_157
*482 FILLER_0_12_165
*483 FILLER_0_12_177
*484 FILLER_0_12_189
*485 FILLER_0_12_193
*486 FILLER_0_12_23
*487 FILLER_0_12_27
*488 FILLER_0_12_29
*489 FILLER_0_12_3
*490 FILLER_0_12_41
*491 FILLER_0_12_53
*492 FILLER_0_12_7
*493 FILLER_0_12_76
*494 FILLER_0_12_85
*495 FILLER_0_12_92
*496 FILLER_0_13_106
*497 FILLER_0_13_154
*498 FILLER_0_13_166
*499 FILLER_0_13_192
*500 FILLER_0_13_20
*501 FILLER_0_13_3
*502 FILLER_0_13_32
*503 FILLER_0_13_40
*504 FILLER_0_13_45
*505 FILLER_0_13_49
*506 FILLER_0_13_57
*507 FILLER_0_13_9
*508 FILLER_0_13_94
*509 FILLER_0_14_100
*510 FILLER_0_14_109
*511 FILLER_0_14_119
*512 FILLER_0_14_126
*513 FILLER_0_14_130
*514 FILLER_0_14_139
*515 FILLER_0_14_141
*516 FILLER_0_14_167
*517 FILLER_0_14_175
*518 FILLER_0_14_189
*519 FILLER_0_14_193
*520 FILLER_0_14_26
*521 FILLER_0_14_29
*522 FILLER_0_14_53
*523 FILLER_0_14_57
*524 FILLER_0_14_81
*525 FILLER_0_14_88
*526 FILLER_0_15_118
*527 FILLER_0_15_129
*528 FILLER_0_15_141
*529 FILLER_0_15_15
*530 FILLER_0_15_159
*531 FILLER_0_15_167
*532 FILLER_0_15_27
*533 FILLER_0_15_3
*534 FILLER_0_15_47
*535 FILLER_0_15_55
*536 FILLER_0_15_63
*537 FILLER_0_15_69
*538 FILLER_0_15_75
*539 FILLER_0_15_87
*540 FILLER_0_16_108
*541 FILLER_0_16_112
*542 FILLER_0_16_131
*543 FILLER_0_16_136
*544 FILLER_0_16_141
*545 FILLER_0_16_15
*546 FILLER_0_16_153
*547 FILLER_0_16_165
*548 FILLER_0_16_177
*549 FILLER_0_16_185
*550 FILLER_0_16_21
*551 FILLER_0_16_27
*552 FILLER_0_16_29
*553 FILLER_0_16_3
*554 FILLER_0_16_41
*555 FILLER_0_16_53
*556 FILLER_0_16_67
*557 FILLER_0_16_79
*558 FILLER_0_16_83
*559 FILLER_0_16_85
*560 FILLER_0_16_97
*561 FILLER_0_17_107
*562 FILLER_0_17_111
*563 FILLER_0_17_113
*564 FILLER_0_17_117
*565 FILLER_0_17_145
*566 FILLER_0_17_153
*567 FILLER_0_17_157
*568 FILLER_0_17_164
*569 FILLER_0_17_176
*570 FILLER_0_17_188
*571 FILLER_0_17_3
*572 FILLER_0_17_33
*573 FILLER_0_17_54
*574 FILLER_0_17_7
*575 FILLER_0_17_84
*576 FILLER_0_17_95
*577 FILLER_0_18_112
*578 FILLER_0_18_124
*579 FILLER_0_18_141
*580 FILLER_0_18_163
*581 FILLER_0_18_190
*582 FILLER_0_18_23
*583 FILLER_0_18_27
*584 FILLER_0_18_29
*585 FILLER_0_18_61
*586 FILLER_0_18_65
*587 FILLER_0_18_81
*588 FILLER_0_18_85
*589 FILLER_0_19_101
*590 FILLER_0_19_109
*591 FILLER_0_19_113
*592 FILLER_0_19_118
*593 FILLER_0_19_126
*594 FILLER_0_19_149
*595 FILLER_0_19_15
*596 FILLER_0_19_153
*597 FILLER_0_19_164
*598 FILLER_0_19_169
*599 FILLER_0_19_173
*600 FILLER_0_19_3
*601 FILLER_0_19_57
*602 FILLER_0_1_105
*603 FILLER_0_1_111
*604 FILLER_0_1_113
*605 FILLER_0_1_125
*606 FILLER_0_1_137
*607 FILLER_0_1_149
*608 FILLER_0_1_15
*609 FILLER_0_1_161
*610 FILLER_0_1_167
*611 FILLER_0_1_169
*612 FILLER_0_1_181
*613 FILLER_0_1_193
*614 FILLER_0_1_27
*615 FILLER_0_1_3
*616 FILLER_0_1_39
*617 FILLER_0_1_51
*618 FILLER_0_1_55
*619 FILLER_0_1_57
*620 FILLER_0_1_69
*621 FILLER_0_1_81
*622 FILLER_0_1_93
*623 FILLER_0_20_101
*624 FILLER_0_20_125
*625 FILLER_0_20_137
*626 FILLER_0_20_141
*627 FILLER_0_20_15
*628 FILLER_0_20_153
*629 FILLER_0_20_165
*630 FILLER_0_20_176
*631 FILLER_0_20_188
*632 FILLER_0_20_27
*633 FILLER_0_20_3
*634 FILLER_0_20_32
*635 FILLER_0_20_72
*636 FILLER_0_21_109
*637 FILLER_0_21_11
*638 FILLER_0_21_118
*639 FILLER_0_21_126
*640 FILLER_0_21_151
*641 FILLER_0_21_157
*642 FILLER_0_21_165
*643 FILLER_0_21_169
*644 FILLER_0_21_19
*645 FILLER_0_21_191
*646 FILLER_0_21_3
*647 FILLER_0_21_31
*648 FILLER_0_21_43
*649 FILLER_0_21_51
*650 FILLER_0_21_77
*651 FILLER_0_21_98
*652 FILLER_0_22_115
*653 FILLER_0_22_138
*654 FILLER_0_22_141
*655 FILLER_0_22_149
*656 FILLER_0_22_171
*657 FILLER_0_22_23
*658 FILLER_0_22_27
*659 FILLER_0_22_3
*660 FILLER_0_22_52
*661 FILLER_0_22_56
*662 FILLER_0_22_72
*663 FILLER_0_22_85
*664 FILLER_0_22_89
*665 FILLER_0_22_9
*666 FILLER_0_23_109
*667 FILLER_0_23_121
*668 FILLER_0_23_129
*669 FILLER_0_23_140
*670 FILLER_0_23_148
*671 FILLER_0_23_166
*672 FILLER_0_23_169
*673 FILLER_0_23_173
*674 FILLER_0_23_181
*675 FILLER_0_23_193
*676 FILLER_0_23_28
*677 FILLER_0_23_40
*678 FILLER_0_23_52
*679 FILLER_0_23_67
*680 FILLER_0_23_79
*681 FILLER_0_23_91
*682 FILLER_0_23_99
*683 FILLER_0_24_105
*684 FILLER_0_24_11
*685 FILLER_0_24_111
*686 FILLER_0_24_141
*687 FILLER_0_24_145
*688 FILLER_0_24_159
*689 FILLER_0_24_171
*690 FILLER_0_24_183
*691 FILLER_0_24_19
*692 FILLER_0_24_191
*693 FILLER_0_24_27
*694 FILLER_0_24_3
*695 FILLER_0_24_37
*696 FILLER_0_24_49
*697 FILLER_0_24_61
*698 FILLER_0_24_70
*699 FILLER_0_24_85
*700 FILLER_0_24_93
*701 FILLER_0_24_97
*702 FILLER_0_25_13
*703 FILLER_0_25_133
*704 FILLER_0_25_140
*705 FILLER_0_25_152
*706 FILLER_0_25_160
*707 FILLER_0_25_169
*708 FILLER_0_25_175
*709 FILLER_0_25_179
*710 FILLER_0_25_192
*711 FILLER_0_25_25
*712 FILLER_0_25_3
*713 FILLER_0_25_33
*714 FILLER_0_25_51
*715 FILLER_0_25_55
*716 FILLER_0_25_57
*717 FILLER_0_25_83
*718 FILLER_0_26_121
*719 FILLER_0_26_133
*720 FILLER_0_26_139
*721 FILLER_0_26_141
*722 FILLER_0_26_153
*723 FILLER_0_26_157
*724 FILLER_0_26_185
*725 FILLER_0_26_23
*726 FILLER_0_26_27
*727 FILLER_0_26_57
*728 FILLER_0_26_61
*729 FILLER_0_26_67
*730 FILLER_0_26_75
*731 FILLER_0_26_93
*732 FILLER_0_27_10
*733 FILLER_0_27_106
*734 FILLER_0_27_113
*735 FILLER_0_27_117
*736 FILLER_0_27_130
*737 FILLER_0_27_14
*738 FILLER_0_27_166
*739 FILLER_0_27_169
*740 FILLER_0_27_177
*741 FILLER_0_27_182
*742 FILLER_0_27_25
*743 FILLER_0_27_37
*744 FILLER_0_27_55
*745 FILLER_0_27_57
*746 FILLER_0_27_6
*747 FILLER_0_27_69
*748 FILLER_0_27_82
*749 FILLER_0_27_94
*750 FILLER_0_28_118
*751 FILLER_0_28_122
*752 FILLER_0_28_138
*753 FILLER_0_28_141
*754 FILLER_0_28_15
*755 FILLER_0_28_153
*756 FILLER_0_28_157
*757 FILLER_0_28_161
*758 FILLER_0_28_169
*759 FILLER_0_28_190
*760 FILLER_0_28_27
*761 FILLER_0_28_29
*762 FILLER_0_28_3
*763 FILLER_0_28_41
*764 FILLER_0_28_67
*765 FILLER_0_28_79
*766 FILLER_0_28_83
*767 FILLER_0_28_85
*768 FILLER_0_28_97
*769 FILLER_0_29_113
*770 FILLER_0_29_125
*771 FILLER_0_29_131
*772 FILLER_0_29_135
*773 FILLER_0_29_147
*774 FILLER_0_29_158
*775 FILLER_0_29_166
*776 FILLER_0_29_169
*777 FILLER_0_29_181
*778 FILLER_0_29_30
*779 FILLER_0_29_38
*780 FILLER_0_29_42
*781 FILLER_0_29_50
*782 FILLER_0_29_54
*783 FILLER_0_29_64
*784 FILLER_0_29_76
*785 FILLER_0_29_88
*786 FILLER_0_29_93
*787 FILLER_0_2_109
*788 FILLER_0_2_121
*789 FILLER_0_2_133
*790 FILLER_0_2_139
*791 FILLER_0_2_141
*792 FILLER_0_2_15
*793 FILLER_0_2_153
*794 FILLER_0_2_165
*795 FILLER_0_2_177
*796 FILLER_0_2_189
*797 FILLER_0_2_193
*798 FILLER_0_2_27
*799 FILLER_0_2_29
*800 FILLER_0_2_3
*801 FILLER_0_2_41
*802 FILLER_0_2_53
*803 FILLER_0_2_65
*804 FILLER_0_2_77
*805 FILLER_0_2_83
*806 FILLER_0_2_85
*807 FILLER_0_2_97
*808 FILLER_0_30_120
*809 FILLER_0_30_128
*810 FILLER_0_30_137
*811 FILLER_0_30_148
*812 FILLER_0_30_173
*813 FILLER_0_30_29
*814 FILLER_0_30_3
*815 FILLER_0_30_43
*816 FILLER_0_30_51
*817 FILLER_0_30_73
*818 FILLER_0_30_83
*819 FILLER_0_30_98
*820 FILLER_0_31_104
*821 FILLER_0_31_116
*822 FILLER_0_31_142
*823 FILLER_0_31_15
*824 FILLER_0_31_152
*825 FILLER_0_31_156
*826 FILLER_0_31_165
*827 FILLER_0_31_189
*828 FILLER_0_31_193
*829 FILLER_0_31_28
*830 FILLER_0_31_3
*831 FILLER_0_31_57
*832 FILLER_0_31_63
*833 FILLER_0_31_91
*834 FILLER_0_32_105
*835 FILLER_0_32_111
*836 FILLER_0_32_113
*837 FILLER_0_32_117
*838 FILLER_0_32_123
*839 FILLER_0_32_129
*840 FILLER_0_32_133
*841 FILLER_0_32_141
*842 FILLER_0_32_15
*843 FILLER_0_32_159
*844 FILLER_0_32_165
*845 FILLER_0_32_185
*846 FILLER_0_32_189
*847 FILLER_0_32_21
*848 FILLER_0_32_27
*849 FILLER_0_32_29
*850 FILLER_0_32_3
*851 FILLER_0_32_33
*852 FILLER_0_32_39
*853 FILLER_0_32_45
*854 FILLER_0_32_51
*855 FILLER_0_32_55
*856 FILLER_0_32_63
*857 FILLER_0_32_69
*858 FILLER_0_32_75
*859 FILLER_0_32_81
*860 FILLER_0_32_88
*861 FILLER_0_32_9
*862 FILLER_0_32_93
*863 FILLER_0_32_99
*864 FILLER_0_3_105
*865 FILLER_0_3_111
*866 FILLER_0_3_113
*867 FILLER_0_3_125
*868 FILLER_0_3_137
*869 FILLER_0_3_149
*870 FILLER_0_3_15
*871 FILLER_0_3_156
*872 FILLER_0_3_169
*873 FILLER_0_3_181
*874 FILLER_0_3_193
*875 FILLER_0_3_20
*876 FILLER_0_3_3
*877 FILLER_0_3_32
*878 FILLER_0_3_44
*879 FILLER_0_3_57
*880 FILLER_0_3_69
*881 FILLER_0_3_81
*882 FILLER_0_3_93
*883 FILLER_0_4_105
*884 FILLER_0_4_117
*885 FILLER_0_4_129
*886 FILLER_0_4_135
*887 FILLER_0_4_139
*888 FILLER_0_4_141
*889 FILLER_0_4_149
*890 FILLER_0_4_154
*891 FILLER_0_4_166
*892 FILLER_0_4_178
*893 FILLER_0_4_190
*894 FILLER_0_4_27
*895 FILLER_0_4_3
*896 FILLER_0_4_36
*897 FILLER_0_4_48
*898 FILLER_0_4_52
*899 FILLER_0_4_64
*900 FILLER_0_4_76
*901 FILLER_0_4_85
*902 FILLER_0_4_89
*903 FILLER_0_4_93
*904 FILLER_0_5_105
*905 FILLER_0_5_111
*906 FILLER_0_5_120
*907 FILLER_0_5_141
*908 FILLER_0_5_15
*909 FILLER_0_5_162
*910 FILLER_0_5_169
*911 FILLER_0_5_181
*912 FILLER_0_5_193
*913 FILLER_0_5_21
*914 FILLER_0_5_3
*915 FILLER_0_5_35
*916 FILLER_0_5_57
*917 FILLER_0_5_63
*918 FILLER_0_5_75
*919 FILLER_0_6_113
*920 FILLER_0_6_134
*921 FILLER_0_6_141
*922 FILLER_0_6_153
*923 FILLER_0_6_159
*924 FILLER_0_6_167
*925 FILLER_0_6_175
*926 FILLER_0_6_183
*927 FILLER_0_6_189
*928 FILLER_0_6_193
*929 FILLER_0_6_22
*930 FILLER_0_6_29
*931 FILLER_0_6_9
*932 FILLER_0_7_102
*933 FILLER_0_7_106
*934 FILLER_0_7_128
*935 FILLER_0_7_140
*936 FILLER_0_7_166
*937 FILLER_0_7_30
*938 FILLER_0_7_36
*939 FILLER_0_7_40
*940 FILLER_0_7_52
*941 FILLER_0_7_57
*942 FILLER_0_7_96
*943 FILLER_0_8_106
*944 FILLER_0_8_11
*945 FILLER_0_8_112
*946 FILLER_0_8_122
*947 FILLER_0_8_126
*948 FILLER_0_8_130
*949 FILLER_0_8_138
*950 FILLER_0_8_141
*951 FILLER_0_8_15
*952 FILLER_0_8_167
*953 FILLER_0_8_184
*954 FILLER_0_8_19
*955 FILLER_0_8_192
*956 FILLER_0_8_23
*957 FILLER_0_8_27
*958 FILLER_0_8_3
*959 FILLER_0_8_35
*960 FILLER_0_8_41
*961 FILLER_0_8_45
*962 FILLER_0_8_57
*963 FILLER_0_8_69
*964 FILLER_0_8_81
*965 FILLER_0_8_88
*966 FILLER_0_8_94
*967 FILLER_0_9_104
*968 FILLER_0_9_113
*969 FILLER_0_9_137
*970 FILLER_0_9_155
*971 FILLER_0_9_167
*972 FILLER_0_9_172
*973 FILLER_0_9_184
*974 FILLER_0_9_188
*975 FILLER_0_9_23
*976 FILLER_0_9_31
*977 FILLER_0_9_53
*978 FILLER_0_9_69
*979 FILLER_0_9_73
*980 PHY_0
*981 PHY_1
*982 PHY_10
*983 PHY_11
*984 PHY_12
*985 PHY_13
*986 PHY_14
*987 PHY_15
*988 PHY_16
*989 PHY_17
*990 PHY_18
*991 PHY_19
*992 PHY_2
*993 PHY_20
*994 PHY_21
*995 PHY_22
*996 PHY_23
*997 PHY_24
*998 PHY_25
*999 PHY_26
*1000 PHY_27
*1001 PHY_28
*1002 PHY_29
*1003 PHY_3
*1004 PHY_30
*1005 PHY_31
*1006 PHY_32
*1007 PHY_33
*1008 PHY_34
*1009 PHY_35
*1010 PHY_36
*1011 PHY_37
*1012 PHY_38
*1013 PHY_39
*1014 PHY_4
*1015 PHY_40
*1016 PHY_41
*1017 PHY_42
*1018 PHY_43
*1019 PHY_44
*1020 PHY_45
*1021 PHY_46
*1022 PHY_47
*1023 PHY_48
*1024 PHY_49
*1025 PHY_5
*1026 PHY_50
*1027 PHY_51
*1028 PHY_52
*1029 PHY_53
*1030 PHY_54
*1031 PHY_55
*1032 PHY_56
*1033 PHY_57
*1034 PHY_58
*1035 PHY_59
*1036 PHY_6
*1037 PHY_60
*1038 PHY_61
*1039 PHY_62
*1040 PHY_63
*1041 PHY_64
*1042 PHY_65
*1043 PHY_7
*1044 PHY_8
*1045 PHY_9
*1046 TAP_100
*1047 TAP_101
*1048 TAP_102
*1049 TAP_103
*1050 TAP_104
*1051 TAP_105
*1052 TAP_106
*1053 TAP_107
*1054 TAP_108
*1055 TAP_109
*1056 TAP_110
*1057 TAP_111
*1058 TAP_112
*1059 TAP_113
*1060 TAP_114
*1061 TAP_115
*1062 TAP_116
*1063 TAP_117
*1064 TAP_118
*1065 TAP_119
*1066 TAP_120
*1067 TAP_121
*1068 TAP_122
*1069 TAP_123
*1070 TAP_124
*1071 TAP_125
*1072 TAP_126
*1073 TAP_127
*1074 TAP_128
*1075 TAP_129
*1076 TAP_130
*1077 TAP_131
*1078 TAP_132
*1079 TAP_133
*1080 TAP_134
*1081 TAP_135
*1082 TAP_136
*1083 TAP_137
*1084 TAP_138
*1085 TAP_139
*1086 TAP_140
*1087 TAP_141
*1088 TAP_142
*1089 TAP_143
*1090 TAP_144
*1091 TAP_145
*1092 TAP_146
*1093 TAP_147
*1094 TAP_148
*1095 TAP_149
*1096 TAP_150
*1097 TAP_151
*1098 TAP_152
*1099 TAP_153
*1100 TAP_154
*1101 TAP_155
*1102 TAP_156
*1103 TAP_157
*1104 TAP_158
*1105 TAP_159
*1106 TAP_160
*1107 TAP_161
*1108 TAP_162
*1109 TAP_163
*1110 TAP_164
*1111 TAP_165
*1112 TAP_166
*1113 TAP_167
*1114 TAP_168
*1115 TAP_169
*1116 TAP_170
*1117 TAP_66
*1118 TAP_67
*1119 TAP_68
*1120 TAP_69
*1121 TAP_70
*1122 TAP_71
*1123 TAP_72
*1124 TAP_73
*1125 TAP_74
*1126 TAP_75
*1127 TAP_76
*1128 TAP_77
*1129 TAP_78
*1130 TAP_79
*1131 TAP_80
*1132 TAP_81
*1133 TAP_82
*1134 TAP_83
*1135 TAP_84
*1136 TAP_85
*1137 TAP_86
*1138 TAP_87
*1139 TAP_88
*1140 TAP_89
*1141 TAP_90
*1142 TAP_91
*1143 TAP_92
*1144 TAP_93
*1145 TAP_94
*1146 TAP_95
*1147 TAP_96
*1148 TAP_97
*1149 TAP_98
*1150 TAP_99
*1151 _206_
*1152 _207_
*1153 _208_
*1154 _209_
*1155 _210_
*1156 _211_
*1157 _212_
*1158 _213_
*1159 _214_
*1160 _215_
*1161 _216_
*1162 _217_
*1163 _218_
*1164 _219_
*1165 _220_
*1166 _221_
*1167 _222_
*1168 _223_
*1169 _224_
*1170 _225_
*1171 _226_
*1172 _227_
*1173 _228_
*1174 _229_
*1175 _230_
*1176 _231_
*1177 _232_
*1178 _233_
*1179 _234_
*1180 _235_
*1181 _236_
*1182 _237_
*1183 _238_
*1184 _239_
*1185 _240_
*1186 _241_
*1187 _242_
*1188 _243_
*1189 _244_
*1190 _245_
*1191 _246_
*1192 _247_
*1193 _248_
*1194 _249_
*1195 _250_
*1196 _251_
*1197 _252_
*1198 _253_
*1199 _254_
*1200 _255_
*1201 _256_
*1202 _257_
*1203 _258_
*1204 _259_
*1205 _260_
*1206 _261_
*1207 _262_
*1208 _263_
*1209 _264_
*1210 _265_
*1211 _266_
*1212 _267_
*1213 _268_
*1214 _269_
*1215 _270_
*1216 _271_
*1217 _272_
*1218 _273_
*1219 _274_
*1220 _275_
*1221 _276_
*1222 _277_
*1223 _278_
*1224 _279_
*1225 _280_
*1226 _281_
*1227 _282_
*1228 _283_
*1229 _284_
*1230 _285_
*1231 _286_
*1232 _287_
*1233 _288_
*1234 _289_
*1235 _290_
*1236 _291_
*1237 _292_
*1238 _293_
*1239 _294_
*1240 _295_
*1241 _296_
*1242 _297_
*1243 _298_
*1244 _299_
*1245 _300_
*1246 _301_
*1247 _302_
*1248 _303_
*1249 _304_
*1250 _305_
*1251 _306_
*1252 _307_
*1253 _308_
*1254 _309_
*1255 _310_
*1256 _311_
*1257 _312_
*1258 _313_
*1259 _314_
*1260 _315_
*1261 _316_
*1262 _317_
*1263 _318_
*1264 _319_
*1265 _320_
*1266 _321_
*1267 _322_
*1268 _323_
*1269 _324_
*1270 _325_
*1271 _326_
*1272 _327_
*1273 _328_
*1274 _329_
*1275 _330_
*1276 _331_
*1277 _332_
*1278 _333_
*1279 _334_
*1280 _335_
*1281 _336_
*1282 _337_
*1283 _338_
*1284 _339_
*1285 _340_
*1286 _341_
*1287 _342_
*1288 _343_
*1289 _344_
*1290 _345_
*1291 _346_
*1292 _347_
*1293 _348_
*1294 _349_
*1295 _350_
*1296 _351_
*1297 _352_
*1298 _353_
*1299 _354_
*1300 _355_
*1301 _356_
*1302 _357_
*1303 _358_
*1304 _359_
*1305 _360_
*1306 _361_
*1307 _362_
*1308 _363_
*1309 _364_
*1310 _365_
*1311 _366_
*1312 _367_
*1313 _368_
*1314 _369_
*1315 _370_
*1316 _371_
*1317 _372_
*1318 _373_
*1319 _374_
*1320 _375_
*1321 _376_
*1322 _377_
*1323 _378_
*1324 _379_
*1325 _380_
*1326 _381_
*1327 _382_
*1328 _383_
*1329 _384_
*1330 _385_
*1331 _386_
*1332 _387_
*1333 _388_
*1334 _389_
*1335 _390_
*1336 _391_
*1337 _392_
*1338 _393_
*1339 _394_
*1340 _395_
*1341 _396_
*1342 _397_
*1343 _398_
*1344 _399_
*1345 _400_
*1346 _401_
*1347 _402_
*1348 _403_
*1349 _404_
*1350 _405_
*1351 _406_
*1352 _407_
*1353 _408_
*1354 _409_
*1355 _410_
*1356 _411_
*1357 _412_
*1358 _413_
*1359 _414_
*1360 _415_
*1361 _416_
*1362 _417_
*1363 _418_
*1364 _419_
*1365 _420_
*1366 _421_
*1367 _422_
*1368 _423_
*1369 _424_
*1370 _425_
*1371 _426_
*1372 _427_
*1373 _428_
*1374 _429_
*1375 _430_
*1376 _431_
*1377 _432_
*1378 _433_
*1379 _434_
*1380 _435_
*1381 _436_
*1382 _437_
*1383 _438_
*1384 _439_
*1385 _440_
*1386 _441_
*1387 _442_
*1388 _443_
*1389 _444_
*1390 _445_
*1391 _446_
*1392 _447_
*1393 _448_
*1394 _449_
*1395 _450_
*1396 _451_
*1397 _452_
*1398 _453_
*1399 _454_
*1400 _455_
*1401 _456_
*1402 _457_
*1403 _458_
*1404 _459_
*1405 _460_
*1406 _461_
*1407 _462_
*1408 _463_
*1409 _464_
*1410 _465_
*1411 _466_
*1412 _467_
*1413 _468_
*1414 _469_
*1415 _470_
*1416 _471_
*1417 _472_
*1418 _473_
*1419 _474_
*1420 _475_
*1421 _476_
*1422 _477_
*1423 _478_
*1424 _479_
*1425 _480_
*1426 _481_
*1427 _482_
*1428 _483_
*1429 _484_
*1430 _485_
*1431 _486_
*1432 _487_
*1433 _488_
*1434 _489_
*1435 _490_
*1436 _491_
*1437 _492_
*1438 _493_
*1439 _494_
*1440 _495_
*1441 _496_
*1442 _497_
*1443 _498_
*1444 _499_
*1445 _500_
*1446 _501_
*1447 _502_
*1448 _503_
*1449 _504_
*1450 _505_
*1451 _506_
*1452 clkbuf_0_clk
*1453 clkbuf_3_0__f_clk
*1454 clkbuf_3_1__f_clk
*1455 clkbuf_3_2__f_clk
*1456 clkbuf_3_3__f_clk
*1457 clkbuf_3_4__f_clk
*1458 clkbuf_3_5__f_clk
*1459 clkbuf_3_6__f_clk
*1460 clkbuf_3_7__f_clk
*1461 hold1
*1462 hold10
*1463 hold11
*1464 hold12
*1465 hold13
*1466 hold14
*1467 hold15
*1468 hold16
*1469 hold17
*1470 hold18
*1471 hold19
*1472 hold2
*1473 hold20
*1474 hold21
*1475 hold22
*1476 hold23
*1477 hold24
*1478 hold25
*1479 hold26
*1480 hold27
*1481 hold28
*1482 hold29
*1483 hold3
*1484 hold30
*1485 hold31
*1486 hold32
*1487 hold33
*1488 hold34
*1489 hold35
*1490 hold36
*1491 hold37
*1492 hold38
*1493 hold39
*1494 hold4
*1495 hold40
*1496 hold41
*1497 hold42
*1498 hold43
*1499 hold44
*1500 hold45
*1501 hold46
*1502 hold47
*1503 hold48
*1504 hold49
*1505 hold5
*1506 hold50
*1507 hold51
*1508 hold52
*1509 hold53
*1510 hold6
*1511 hold7
*1512 hold8
*1513 hold9
*1514 input1
*1515 input10
*1516 input11
*1517 input12
*1518 input13
*1519 input14
*1520 input15
*1521 input16
*1522 input17
*1523 input18
*1524 input19
*1525 input2
*1526 input20
*1527 input21
*1528 input22
*1529 input23
*1530 input24
*1531 input25
*1532 input26
*1533 input27
*1534 input28
*1535 input29
*1536 input3
*1537 input30
*1538 input31
*1539 input32
*1540 input33
*1541 input34
*1542 input4
*1543 input5
*1544 input6
*1545 input7
*1546 input8
*1547 input9
*1548 output35

*PORTS
clk I
p O
rst I
x[0] I
x[10] I
x[11] I
x[12] I
x[13] I
x[14] I
x[15] I
x[16] I
x[17] I
x[18] I
x[19] I
x[1] I
x[20] I
x[21] I
x[22] I
x[23] I
x[24] I
x[25] I
x[26] I
x[27] I
x[28] I
x[29] I
x[2] I
x[30] I
x[31] I
x[3] I
x[4] I
x[5] I
x[6] I
x[7] I
x[8] I
x[9] I
y I

*D_NET *3 0.00639448
*CONN
*P clk I
*I *1452:A I *D sky130_fd_sc_hd__clkbuf_16
*CAP
1 clk 0.00303515
2 *1452:A 0.00303515
3 *1452:A *1248:A2 0.00027204
4 *1452:A *1250:B 0
5 *1452:A *172:38 3.89982e-05
6 *1452:A *242:57 1.31316e-05
7 *1452:A *245:82 0
*RES
1 clk *1452:A 13.1727 
*END

*D_NET *4 0.000523148
*CONN
*P p O
*I *1548:X O *D sky130_fd_sc_hd__clkbuf_4
*CAP
1 p 0.000261574
2 *1548:X 0.000261574
*RES
1 *1548:X p 4.9633 
*END

*D_NET *5 0.000763257
*CONN
*P rst I
*I *1514:A I *D sky130_fd_sc_hd__clkbuf_1
*CAP
1 rst 0.000381629
2 *1514:A 0.000381629
*RES
1 rst *1514:A 10.455 
*END

*D_NET *6 0.000922909
*CONN
*P x[0] I
*I *1525:A I *D sky130_fd_sc_hd__buf_1
*CAP
1 x[0] 0.000461454
2 *1525:A 0.000461454
3 *1525:A *1518:A 0
*RES
1 x[0] *1525:A 11.625 
*END

*D_NET *7 0.00102534
*CONN
*P x[10] I
*I *1536:A I *D sky130_fd_sc_hd__buf_1
*CAP
1 x[10] 0.000509752
2 *1536:A 0.000509752
3 *1536:A *1540:A 0
4 *1536:A *1542:A 0
5 *1536:A *380:14 5.83121e-06
*RES
1 x[10] *1536:A 12.315 
*END

*D_NET *8 0.00102286
*CONN
*P x[11] I
*I *1542:A I *D sky130_fd_sc_hd__buf_1
*CAP
1 x[11] 0.000496748
2 *1542:A 0.000496748
3 *1542:A *1543:A 0
4 *1542:A *380:14 2.93678e-05
5 *1536:A *1542:A 0
*RES
1 x[11] *1542:A 12.315 
*END

*D_NET *9 0.000906431
*CONN
*P x[12] I
*I *1543:A I *D sky130_fd_sc_hd__buf_1
*CAP
1 x[12] 0.000453215
2 *1543:A 0.000453215
3 *1543:A *1544:A 0
4 *1542:A *1543:A 0
*RES
1 x[12] *1543:A 11.625 
*END

*D_NET *10 0.0011014
*CONN
*P x[13] I
*I *1544:A I *D sky130_fd_sc_hd__buf_1
*CAP
1 x[13] 0.000502396
2 *1544:A 0.000502396
3 *1544:A *1545:A 0
4 *1544:A *391:18 9.66106e-05
5 *1543:A *1544:A 0
*RES
1 x[13] *1544:A 12.66 
*END

*D_NET *11 0.00105165
*CONN
*P x[14] I
*I *1545:A I *D sky130_fd_sc_hd__clkbuf_1
*CAP
1 x[14] 0.000498829
2 *1545:A 0.000498829
3 *1545:A *1546:A 0
4 *1545:A *391:18 5.39961e-05
5 *1544:A *1545:A 0
*RES
1 x[14] *1545:A 12.315 
*END

*D_NET *12 0.000922909
*CONN
*P x[15] I
*I *1546:A I *D sky130_fd_sc_hd__clkbuf_1
*CAP
1 x[15] 0.000461454
2 *1546:A 0.000461454
3 *1546:A *1547:A 0
4 *1545:A *1546:A 0
*RES
1 x[15] *1546:A 11.625 
*END

*D_NET *13 0.000922909
*CONN
*P x[16] I
*I *1547:A I *D sky130_fd_sc_hd__buf_1
*CAP
1 x[16] 0.000461454
2 *1547:A 0.000461454
3 *1547:A *1515:A 0
4 *1546:A *1547:A 0
*RES
1 x[16] *1547:A 11.625 
*END

*D_NET *14 0.000905533
*CONN
*P x[17] I
*I *1515:A I *D sky130_fd_sc_hd__buf_1
*CAP
1 x[17] 0.000452767
2 *1515:A 0.000452767
3 *1515:A *1516:A 0
4 *1547:A *1515:A 0
*RES
1 x[17] *1515:A 11.625 
*END

*D_NET *15 0.000919694
*CONN
*P x[18] I
*I *1516:A I *D sky130_fd_sc_hd__buf_1
*CAP
1 x[18] 0.000459847
2 *1516:A 0.000459847
3 *1516:A *1517:A 0
4 *1515:A *1516:A 0
*RES
1 x[18] *1516:A 11.625 
*END

*D_NET *16 0.000930205
*CONN
*P x[19] I
*I *1517:A I *D sky130_fd_sc_hd__buf_1
*CAP
1 x[19] 0.000450419
2 *1517:A 0.000450419
3 *1517:A *1519:A 0
4 *1517:A *350:30 2.93678e-05
5 *1516:A *1517:A 0
*RES
1 x[19] *1517:A 11.625 
*END

*D_NET *17 0.000933131
*CONN
*P x[1] I
*I *1518:A I *D sky130_fd_sc_hd__buf_1
*CAP
1 x[1] 0.000452804
2 *1518:A 0.000452804
3 *1518:A *1530:A 0
4 *1518:A *351:20 2.75229e-05
5 *1525:A *1518:A 0
*RES
1 x[1] *1518:A 11.625 
*END

*D_NET *18 0.000926342
*CONN
*P x[20] I
*I *1519:A I *D sky130_fd_sc_hd__buf_1
*CAP
1 x[20] 0.000463171
2 *1519:A 0.000463171
3 *1519:A *1520:A 0
4 *1517:A *1519:A 0
*RES
1 x[20] *1519:A 11.625 
*END

*D_NET *19 0.00132676
*CONN
*P x[21] I
*I *1520:A I *D sky130_fd_sc_hd__clkbuf_1
*CAP
1 x[21] 0.000567217
2 *1520:A 0.000567217
3 *1520:A *1367:A 8.01019e-05
4 *1520:A *1432:RESET_B 1.47256e-05
5 *1520:A *1521:A 4.99619e-05
6 *1520:A *1522:A 0
7 *1520:A *352:14 4.7533e-05
8 *1519:A *1520:A 0
*RES
1 x[21] *1520:A 14.145 
*END

*D_NET *20 0.00149466
*CONN
*P x[22] I
*I *1521:A I *D sky130_fd_sc_hd__buf_1
*CAP
1 x[22] 0.000681609
2 *1521:A 0.000681609
3 *1521:A *1367:A 1.61831e-05
4 *1521:A *1522:A 6.53008e-05
5 *1520:A *1521:A 4.99619e-05
*RES
1 x[22] *1521:A 15.15 
*END

*D_NET *21 0.00136228
*CONN
*P x[23] I
*I *1522:A I *D sky130_fd_sc_hd__buf_1
*CAP
1 x[23] 0.000611985
2 *1522:A 0.000611985
3 *1522:A *1268:B 9.50342e-06
4 *1522:A *1367:A 4.00541e-06
5 *1522:A *1523:A 0
6 *1522:A *354:10 5.94962e-05
7 *1520:A *1522:A 0
8 *1521:A *1522:A 6.53008e-05
*RES
1 x[23] *1522:A 14.415 
*END

*D_NET *22 0.00107868
*CONN
*P x[24] I
*I *1523:A I *D sky130_fd_sc_hd__buf_1
*CAP
1 x[24] 0.000391292
2 *1523:A 0.000391292
3 *1523:A *1268:A 0
4 *1523:A *1524:A 0.000296095
5 *1522:A *1523:A 0
*RES
1 x[24] *1523:A 12.765 
*END

*D_NET *23 0.00101403
*CONN
*P x[25] I
*I *1524:A I *D sky130_fd_sc_hd__buf_1
*CAP
1 x[25] 0.000314396
2 *1524:A 0.000314396
3 *1524:A *1274:A2 4.99619e-05
4 *1524:A *1526:A 0
5 *1524:A *354:10 1.16578e-05
6 *1524:A *356:10 2.75229e-05
7 *1523:A *1524:A 0.000296095
*RES
1 x[25] *1524:A 11.625 
*END

*D_NET *24 0.000957675
*CONN
*P x[26] I
*I *1526:A I *D sky130_fd_sc_hd__buf_1
*CAP
1 x[26] 0.000438592
2 *1526:A 0.000438592