* NGSPICE file created from spm.ext - technology: sky130A

* Black-box entry subcircuit for sky130_ef_sc_hd__decap_12 abstract view
.subckt sky130_ef_sc_hd__decap_12 VPWR VGND VPB VNB
.ends

* Black-box entry subcircuit for sky130_fd_sc_hd__xnor2_1 abstract view
.subckt sky130_fd_sc_hd__xnor2_1 A B VGND VNB VPB VPWR Y
.ends

* Black-box entry subcircuit for sky130_fd_sc_hd__inv_2 abstract view
.subckt sky130_fd_sc_hd__inv_2 A VGND VNB VPB VPWR Y
.ends

* Black-box entry subcircuit for sky130_fd_sc_hd__dfrtp_1 abstract view
.subckt sky130_fd_sc_hd__dfrtp_1 CLK D RESET_B VGND VNB VPB VPWR Q
.ends

* Black-box entry subcircuit for sky130_fd_sc_hd__and2_1 abstract view
.subckt sky130_fd_sc_hd__and2_1 A B VGND VNB VPB VPWR X
.ends

* Black-box entry subcircuit for sky130_fd_sc_hd__fill_1 abstract view
.subckt sky130_fd_sc_hd__fill_1 VGND VNB VPB VPWR
.ends

* Black-box entry subcircuit for sky130_fd_sc_hd__decap_6 abstract view
.subckt sky130_fd_sc_hd__decap_6 VGND VNB VPB VPWR
.ends

* Black-box entry subcircuit for sky130_fd_sc_hd__a31o_1 abstract view
.subckt sky130_fd_sc_hd__a31o_1 A1 A2 A3 B1 VGND VNB VPB VPWR X
.ends

* Black-box entry subcircuit for sky130_fd_sc_hd__decap_4 abstract view
.subckt sky130_fd_sc_hd__decap_4 VGND VNB VPB VPWR
.ends

* Black-box entry subcircuit for sky130_fd_sc_hd__decap_8 abstract view
.subckt sky130_fd_sc_hd__decap_8 VGND VNB VPB VPWR
.ends

* Black-box entry subcircuit for sky130_fd_sc_hd__fill_2 abstract view
.subckt sky130_fd_sc_hd__fill_2 VGND VNB VPB VPWR
.ends

* Black-box entry subcircuit for sky130_fd_sc_hd__dlygate4sd3_1 abstract view
.subckt sky130_fd_sc_hd__dlygate4sd3_1 A VGND VNB VPB VPWR X
.ends

* Black-box entry subcircuit for sky130_fd_sc_hd__tapvpwrvgnd_1 abstract view
.subckt sky130_fd_sc_hd__tapvpwrvgnd_1 VGND VPWR
.ends

* Black-box entry subcircuit for sky130_fd_sc_hd__nand2_1 abstract view
.subckt sky130_fd_sc_hd__nand2_1 A B VGND VNB VPB VPWR Y
.ends

* Black-box entry subcircuit for sky130_fd_sc_hd__clkbuf_16 abstract view
.subckt sky130_fd_sc_hd__clkbuf_16 A VGND VNB VPB VPWR X
.ends

* Black-box entry subcircuit for sky130_fd_sc_hd__xor2_1 abstract view
.subckt sky130_fd_sc_hd__xor2_1 A B VGND VNB VPB VPWR X
.ends

* Black-box entry subcircuit for sky130_fd_sc_hd__decap_3 abstract view
.subckt sky130_fd_sc_hd__decap_3 VGND VNB VPB VPWR
.ends

* Black-box entry subcircuit for sky130_fd_sc_hd__clkbuf_4 abstract view
.subckt sky130_fd_sc_hd__clkbuf_4 A VGND VNB VPB VPWR X
.ends

* Black-box entry subcircuit for sky130_fd_sc_hd__clkbuf_1 abstract view
.subckt sky130_fd_sc_hd__clkbuf_1 A VGND VNB VPB VPWR X
.ends

* Black-box entry subcircuit for sky130_fd_sc_hd__buf_4 abstract view
.subckt sky130_fd_sc_hd__buf_4 A VGND VNB VPB VPWR X
.ends

* Black-box entry subcircuit for sky130_fd_sc_hd__nand3_1 abstract view
.subckt sky130_fd_sc_hd__nand3_1 A B C VGND VNB VPB VPWR Y
.ends

* Black-box entry subcircuit for sky130_fd_sc_hd__a21o_1 abstract view
.subckt sky130_fd_sc_hd__a21o_1 A1 A2 B1 VGND VNB VPB VPWR X
.ends

* Black-box entry subcircuit for sky130_fd_sc_hd__buf_1 abstract view
.subckt sky130_fd_sc_hd__buf_1 A VGND VNB VPB VPWR X
.ends

* Black-box entry subcircuit for sky130_fd_sc_hd__buf_2 abstract view
.subckt sky130_fd_sc_hd__buf_2 A VGND VNB VPB VPWR X
.ends

.subckt spm VGND VPWR clk p rst x[0] x[10] x[11] x[12] x[13] x[14] x[15] x[16] x[17]
+ x[18] x[19] x[1] x[20] x[21] x[22] x[23] x[24] x[25] x[26] x[27] x[28] x[29] x[2]
+ x[30] x[31] x[3] x[4] x[5] x[6] x[7] x[8] x[9] y
XFILLER_0_27_82 VPWR VGND VPWR VGND sky130_ef_sc_hd__decap_12
X_294_ _151_ _149_ VGND VGND VPWR VPWR genblk1\[15\].csa.hsum2 sky130_fd_sc_hd__xnor2_1
X_432_ _205_ VGND VGND VPWR VPWR _086_ sky130_fd_sc_hd__inv_2
X_501_ clknet_3_5__leaf_clk _020_ _091_ VGND VGND VPWR VPWR genblk1\[28\].csa.sc sky130_fd_sc_hd__dfrtp_1
X_363_ net65 net88 VGND VGND VPWR VPWR _194_ sky130_fd_sc_hd__and2_1
XFILLER_0_13_40 VGND VGND VPWR VPWR sky130_fd_sc_hd__fill_1
X_346_ _183_ net55 VGND VGND VPWR VPWR genblk1\[25\].csa.hsum2 sky130_fd_sc_hd__xnor2_1
XFILLER_0_18_29 VGND VGND VPWR VPWR sky130_fd_sc_hd__fill_1
X_415_ _203_ VGND VGND VPWR VPWR _071_ sky130_fd_sc_hd__inv_2
XFILLER_0_24_61 VGND VGND VPWR VPWR sky130_fd_sc_hd__decap_6
X_277_ _133_ net5 _140_ _141_ VGND VGND VPWR VPWR _003_ sky130_fd_sc_hd__a31o_1
XFILLER_0_4_93 VPWR VGND VPWR VGND sky130_ef_sc_hd__decap_12
X_329_ _165_ net16 _172_ _173_ VGND VGND VPWR VPWR _014_ sky130_fd_sc_hd__a31o_1
XFILLER_0_28_169 VGND VGND VPWR VPWR sky130_fd_sc_hd__fill_1
XFILLER_0_0_29 VPWR VGND VPWR VGND sky130_ef_sc_hd__decap_12
XFILLER_0_10_85 VGND VGND VPWR VPWR sky130_fd_sc_hd__decap_4
XFILLER_0_19_169 VGND VGND VPWR VPWR sky130_fd_sc_hd__decap_4
XFILLER_0_24_183 VGND VGND VPWR VPWR sky130_fd_sc_hd__decap_8
XFILLER_0_21_51 VGND VGND VPWR VPWR sky130_fd_sc_hd__fill_2
XFILLER_0_30_120 VGND VGND VPWR VPWR sky130_fd_sc_hd__decap_8
Xhold41 genblk1\[12\].csa.sc VGND VGND VPWR VPWR net76 sky130_fd_sc_hd__dlygate4sd3_1
Xhold52 genblk1\[17\].csa.y VGND VGND VPWR VPWR net87 sky130_fd_sc_hd__dlygate4sd3_1
Xhold30 genblk1\[29\].csa.sc VGND VGND VPWR VPWR net65 sky130_fd_sc_hd__dlygate4sd3_1
XTAP_167 VGND VPWR sky130_fd_sc_hd__tapvpwrvgnd_1
XTAP_156 VGND VPWR sky130_fd_sc_hd__tapvpwrvgnd_1
XFILLER_0_27_94 VPWR VGND VPWR VGND sky130_ef_sc_hd__decap_12
XTAP_145 VGND VPWR sky130_fd_sc_hd__tapvpwrvgnd_1
XTAP_134 VGND VPWR sky130_fd_sc_hd__tapvpwrvgnd_1
XTAP_123 VGND VPWR sky130_fd_sc_hd__tapvpwrvgnd_1
XTAP_112 VGND VPWR sky130_fd_sc_hd__tapvpwrvgnd_1
XTAP_101 VGND VPWR sky130_fd_sc_hd__tapvpwrvgnd_1
X_293_ _122_ net8 VGND VGND VPWR VPWR _151_ sky130_fd_sc_hd__nand2_1
Xclkbuf_3_6__f_clk clknet_0_clk VGND VGND VPWR VPWR clknet_3_6__leaf_clk sky130_fd_sc_hd__clkbuf_16
X_431_ _205_ VGND VGND VPWR VPWR _085_ sky130_fd_sc_hd__inv_2
X_500_ clknet_3_5__leaf_clk genblk1\[27\].csa.hsum2 _090_ VGND VGND VPWR VPWR genblk1\[26\].csa.y
+ sky130_fd_sc_hd__dfrtp_1
XFILLER_0_2_109 VPWR VGND VPWR VGND sky130_ef_sc_hd__decap_12
X_362_ net65 net67 VGND VGND VPWR VPWR _193_ sky130_fd_sc_hd__xor2_1
X_345_ _154_ net19 VGND VGND VPWR VPWR _183_ sky130_fd_sc_hd__nand2_1
X_414_ _203_ VGND VGND VPWR VPWR _070_ sky130_fd_sc_hd__inv_2
X_276_ net76 genblk1\[12\].csa.y VGND VGND VPWR VPWR _141_ sky130_fd_sc_hd__and2_1
X_328_ net85 genblk1\[22\].csa.y VGND VGND VPWR VPWR _173_ sky130_fd_sc_hd__and2_1
X_259_ genblk1\[9\].csa.sc genblk1\[10\].csa.sum VGND VGND VPWR VPWR _130_ sky130_fd_sc_hd__xor2_1
XFILLER_0_19_126 VGND VGND VPWR VPWR sky130_fd_sc_hd__decap_3
Xhold20 _181_ VGND VGND VPWR VPWR net55 sky130_fd_sc_hd__dlygate4sd3_1
Xhold31 genblk1\[17\].csa.sc VGND VGND VPWR VPWR net66 sky130_fd_sc_hd__dlygate4sd3_1
XFILLER_0_1_51 VGND VGND VPWR VPWR sky130_fd_sc_hd__decap_4
Xhold53 genblk1\[29\].csa.y VGND VGND VPWR VPWR net88 sky130_fd_sc_hd__dlygate4sd3_1
Xhold42 genblk1\[3\].csa.sc VGND VGND VPWR VPWR net77 sky130_fd_sc_hd__dlygate4sd3_1
XFILLER_0_21_165 VGND VGND VPWR VPWR sky130_fd_sc_hd__decap_3
XFILLER_0_16_85 VPWR VGND VPWR VGND sky130_ef_sc_hd__decap_12
XFILLER_0_16_41 VPWR VGND VPWR VGND sky130_ef_sc_hd__decap_12
XFILLER_0_13_9 VGND VGND VPWR VPWR sky130_fd_sc_hd__fill_1
XFILLER_0_6_29 VGND VGND VPWR VPWR sky130_fd_sc_hd__decap_6
XFILLER_0_32_51 VGND VGND VPWR VPWR sky130_fd_sc_hd__decap_4
XFILLER_0_12_165 VPWR VGND VPWR VGND sky130_ef_sc_hd__decap_12
XFILLER_0_8_126 VGND VGND VPWR VPWR sky130_fd_sc_hd__fill_1
XTAP_168 VGND VPWR sky130_fd_sc_hd__tapvpwrvgnd_1
XTAP_157 VGND VPWR sky130_fd_sc_hd__tapvpwrvgnd_1
XTAP_146 VGND VPWR sky130_fd_sc_hd__tapvpwrvgnd_1
XTAP_135 VGND VPWR sky130_fd_sc_hd__tapvpwrvgnd_1
XTAP_124 VGND VPWR sky130_fd_sc_hd__tapvpwrvgnd_1
XTAP_113 VGND VPWR sky130_fd_sc_hd__tapvpwrvgnd_1
XTAP_102 VGND VPWR sky130_fd_sc_hd__tapvpwrvgnd_1
X_292_ _133_ net8 _149_ _150_ VGND VGND VPWR VPWR _006_ sky130_fd_sc_hd__a31o_1
X_430_ _205_ VGND VGND VPWR VPWR _084_ sky130_fd_sc_hd__inv_2
X_361_ _192_ _190_ VGND VGND VPWR VPWR genblk1\[28\].csa.hsum2 sky130_fd_sc_hd__xnor2_1
XFILLER_0_13_20 VPWR VGND VPWR VGND sky130_ef_sc_hd__decap_12
X_344_ _165_ net19 _181_ _182_ VGND VGND VPWR VPWR _017_ sky130_fd_sc_hd__a31o_1
X_275_ genblk1\[12\].csa.sc genblk1\[12\].csa.y VGND VGND VPWR VPWR _140_ sky130_fd_sc_hd__xor2_1
X_413_ _203_ VGND VGND VPWR VPWR _069_ sky130_fd_sc_hd__inv_2
XFILLER_0_24_85 VGND VGND VPWR VPWR sky130_fd_sc_hd__decap_8
XFILLER_0_28_138 VGND VGND VPWR VPWR sky130_fd_sc_hd__fill_2
X_258_ _129_ _127_ VGND VGND VPWR VPWR genblk1\[8\].csa.hsum2 sky130_fd_sc_hd__xnor2_1
X_327_ genblk1\[22\].csa.sc genblk1\[22\].csa.y VGND VGND VPWR VPWR _172_ sky130_fd_sc_hd__xor2_1
XFILLER_0_19_149 VGND VGND VPWR VPWR sky130_fd_sc_hd__decap_4
XFILLER_0_27_182 VPWR VGND VPWR VGND sky130_ef_sc_hd__decap_12
XFILLER_0_24_141 VGND VGND VPWR VPWR sky130_fd_sc_hd__decap_4
XFILLER_0_21_31 VGND VGND VPWR VPWR sky130_fd_sc_hd__decap_6
XFILLER_0_16_108 VGND VGND VPWR VPWR sky130_fd_sc_hd__decap_4
XFILLER_0_15_141 VGND VGND VPWR VPWR sky130_fd_sc_hd__decap_8
Xhold21 genblk1\[16\].csa.sc VGND VGND VPWR VPWR net56 sky130_fd_sc_hd__dlygate4sd3_1
Xhold10 genblk1\[4\].csa.y VGND VGND VPWR VPWR net45 sky130_fd_sc_hd__dlygate4sd3_1
Xhold32 genblk1\[29\].csa.y VGND VGND VPWR VPWR net67 sky130_fd_sc_hd__dlygate4sd3_1
Xhold43 _112_ VGND VGND VPWR VPWR net78 sky130_fd_sc_hd__dlygate4sd3_1
XFILLER_0_32_63 VGND VGND VPWR VPWR sky130_fd_sc_hd__decap_3
XFILLER_0_16_97 VGND VGND VPWR VPWR sky130_fd_sc_hd__decap_4
XFILLER_0_16_53 VGND VGND VPWR VPWR sky130_fd_sc_hd__decap_4
XFILLER_0_12_177 VPWR VGND VPWR VGND sky130_ef_sc_hd__decap_12
XFILLER_0_12_111 VPWR VGND VPWR VGND sky130_ef_sc_hd__decap_12
XFILLER_0_8_138 VGND VGND VPWR VPWR sky130_fd_sc_hd__fill_2
XTAP_169 VGND VPWR sky130_fd_sc_hd__tapvpwrvgnd_1
XTAP_158 VGND VPWR sky130_fd_sc_hd__tapvpwrvgnd_1
XTAP_147 VGND VPWR sky130_fd_sc_hd__tapvpwrvgnd_1
XTAP_136 VGND VPWR sky130_fd_sc_hd__tapvpwrvgnd_1
XTAP_125 VGND VPWR sky130_fd_sc_hd__tapvpwrvgnd_1
XTAP_114 VGND VPWR sky130_fd_sc_hd__tapvpwrvgnd_1
XTAP_103 VGND VPWR sky130_fd_sc_hd__tapvpwrvgnd_1
X_291_ net71 genblk1\[15\].csa.y VGND VGND VPWR VPWR _150_ sky130_fd_sc_hd__and2_1
XFILLER_0_4_141 VGND VGND VPWR VPWR sky130_fd_sc_hd__decap_8
XFILLER_0_7_40 VPWR VGND VPWR VGND sky130_ef_sc_hd__decap_12
X_360_ _097_ net22 VGND VGND VPWR VPWR _192_ sky130_fd_sc_hd__nand2_1
X_489_ clknet_3_7__leaf_clk _014_ _079_ VGND VGND VPWR VPWR genblk1\[22\].csa.sc sky130_fd_sc_hd__dfrtp_1
XFILLER_0_13_32 VGND VGND VPWR VPWR sky130_fd_sc_hd__decap_8
XFILLER_0_1_111 VGND VGND VPWR VPWR sky130_fd_sc_hd__fill_1
X_412_ _203_ VGND VGND VPWR VPWR _068_ sky130_fd_sc_hd__inv_2
X_343_ net54 genblk1\[25\].csa.y VGND VGND VPWR VPWR _182_ sky130_fd_sc_hd__and2_1
X_274_ _139_ _137_ VGND VGND VPWR VPWR genblk1\[11\].csa.hsum2 sky130_fd_sc_hd__xnor2_1
XFILLER_0_24_97 VGND VGND VPWR VPWR sky130_fd_sc_hd__decap_8
XFILLER_0_4_52 VPWR VGND VPWR VGND sky130_ef_sc_hd__decap_12
XFILLER_0_4_85 VGND VGND VPWR VPWR sky130_fd_sc_hd__decap_4
X_257_ _122_ net32 VGND VGND VPWR VPWR _129_ sky130_fd_sc_hd__nand2_1
X_326_ _171_ _169_ VGND VGND VPWR VPWR genblk1\[21\].csa.hsum2 sky130_fd_sc_hd__xnor2_1
XFILLER_0_21_43 VGND VGND VPWR VPWR sky130_fd_sc_hd__decap_8
X_309_ _154_ net11 VGND VGND VPWR VPWR _161_ sky130_fd_sc_hd__nand2_1
XFILLER_0_21_98 VGND VGND VPWR VPWR sky130_fd_sc_hd__decap_8
Xhold33 genblk1\[7\].csa.sc VGND VGND VPWR VPWR net68 sky130_fd_sc_hd__dlygate4sd3_1
Xhold22 _153_ VGND VGND VPWR VPWR net57 sky130_fd_sc_hd__dlygate4sd3_1
Xhold11 _115_ VGND VGND VPWR VPWR net46 sky130_fd_sc_hd__dlygate4sd3_1
Xhold44 genblk1\[26\].csa.sc VGND VGND VPWR VPWR net79 sky130_fd_sc_hd__dlygate4sd3_1
XFILLER_0_32_75 VGND VGND VPWR VPWR sky130_fd_sc_hd__decap_3
XFILLER_0_16_21 VGND VGND VPWR VPWR sky130_fd_sc_hd__decap_6
XFILLER_0_12_189 VGND VGND VPWR VPWR sky130_fd_sc_hd__decap_4
XFILLER_0_12_123 VGND VGND VPWR VPWR sky130_fd_sc_hd__fill_2
XFILLER_0_8_106 VGND VGND VPWR VPWR sky130_fd_sc_hd__decap_6
XFILLER_0_32_3 VGND VGND VPWR VPWR sky130_fd_sc_hd__decap_3
XTAP_159 VGND VPWR sky130_fd_sc_hd__tapvpwrvgnd_1
XTAP_148 VGND VPWR sky130_fd_sc_hd__tapvpwrvgnd_1
XTAP_137 VGND VPWR sky130_fd_sc_hd__tapvpwrvgnd_1
XTAP_126 VGND VPWR sky130_fd_sc_hd__tapvpwrvgnd_1
XTAP_115 VGND VPWR sky130_fd_sc_hd__tapvpwrvgnd_1
XTAP_104 VGND VPWR sky130_fd_sc_hd__tapvpwrvgnd_1
XFILLER_0_7_30 VGND VGND VPWR VPWR sky130_fd_sc_hd__decap_6
XFILLER_0_7_52 VGND VGND VPWR VPWR sky130_fd_sc_hd__decap_4
XFILLER_0_7_96 VGND VGND VPWR VPWR sky130_fd_sc_hd__decap_6
X_488_ clknet_3_7__leaf_clk genblk1\[21\].csa.hsum2 _078_ VGND VGND VPWR VPWR genblk1\[20\].csa.y
+ sky130_fd_sc_hd__dfrtp_1
X_290_ genblk1\[15\].csa.sc genblk1\[15\].csa.y VGND VGND VPWR VPWR _149_ sky130_fd_sc_hd__xor2_1
XFILLER_0_1_167 VGND VGND VPWR VPWR sky130_fd_sc_hd__fill_1
X_411_ _203_ VGND VGND VPWR VPWR _067_ sky130_fd_sc_hd__inv_2
X_342_ net54 genblk1\[25\].csa.y VGND VGND VPWR VPWR _181_ sky130_fd_sc_hd__xor2_1
X_273_ _122_ net4 VGND VGND VPWR VPWR _139_ sky130_fd_sc_hd__nand2_1
XFILLER_0_4_64 VPWR VGND VPWR VGND sky130_ef_sc_hd__decap_12
X_256_ _099_ net32 _127_ net74 VGND VGND VPWR VPWR _029_ sky130_fd_sc_hd__a31o_1
X_325_ _154_ net15 VGND VGND VPWR VPWR _171_ sky130_fd_sc_hd__nand2_1
XFILLER_0_28_118 VGND VGND VPWR VPWR sky130_fd_sc_hd__decap_4
XFILLER_0_10_89 VGND VGND VPWR VPWR sky130_fd_sc_hd__fill_1
XFILLER_0_19_118 VGND VGND VPWR VPWR sky130_fd_sc_hd__decap_8
XFILLER_0_27_6 VGND VGND VPWR VPWR sky130_fd_sc_hd__decap_4
XFILLER_0_21_77 VGND VGND VPWR VPWR sky130_fd_sc_hd__fill_1
XFILLER_0_21_11 VGND VGND VPWR VPWR sky130_fd_sc_hd__fill_1
X_239_ net62 genblk1\[5\].csa.y VGND VGND VPWR VPWR _118_ sky130_fd_sc_hd__and2_1
X_308_ _133_ net11 _159_ net61 VGND VGND VPWR VPWR _009_ sky130_fd_sc_hd__a31o_1
Xhold12 genblk1\[21\].csa.sc VGND VGND VPWR VPWR net47 sky130_fd_sc_hd__dlygate4sd3_1
Xhold45 genblk1\[24\].csa.sc VGND VGND VPWR VPWR net80 sky130_fd_sc_hd__dlygate4sd3_1
Xhold23 genblk1\[11\].csa.sc VGND VGND VPWR VPWR net58 sky130_fd_sc_hd__dlygate4sd3_1
Xhold34 genblk1\[28\].csa.sc VGND VGND VPWR VPWR net69 sky130_fd_sc_hd__dlygate4sd3_1
XFILLER_0_32_21 VGND VGND VPWR VPWR sky130_fd_sc_hd__decap_3
XFILLER_0_21_157 VGND VGND VPWR VPWR sky130_fd_sc_hd__fill_1
XFILLER_0_25_3 VGND VGND VPWR VPWR sky130_fd_sc_hd__decap_4
XFILLER_0_12_157 VGND VGND VPWR VPWR sky130_fd_sc_hd__fill_1
Xoutput35 net35 VGND VGND VPWR VPWR p sky130_fd_sc_hd__clkbuf_4
XFILLER_0_7_140 VGND VGND VPWR VPWR sky130_fd_sc_hd__decap_6
XTAP_149 VGND VPWR sky130_fd_sc_hd__tapvpwrvgnd_1
XFILLER_0_27_10 VGND VGND VPWR VPWR sky130_fd_sc_hd__fill_1
XTAP_138 VGND VPWR sky130_fd_sc_hd__tapvpwrvgnd_1
XTAP_127 VGND VPWR sky130_fd_sc_hd__tapvpwrvgnd_1
XTAP_116 VGND VPWR sky130_fd_sc_hd__tapvpwrvgnd_1
Xclkbuf_3_1__f_clk clknet_0_clk VGND VGND VPWR VPWR clknet_3_1__leaf_clk sky130_fd_sc_hd__clkbuf_16
XTAP_105 VGND VPWR sky130_fd_sc_hd__tapvpwrvgnd_1
XFILLER_0_4_154 VPWR VGND VPWR VGND sky130_ef_sc_hd__decap_12
X_487_ clknet_3_6__leaf_clk _013_ _077_ VGND VGND VPWR VPWR genblk1\[21\].csa.sc sky130_fd_sc_hd__dfrtp_1
XFILLER_0_13_45 VGND VGND VPWR VPWR sky130_fd_sc_hd__decap_4
XFILLER_0_1_113 VPWR VGND VPWR VGND sky130_ef_sc_hd__decap_12
X_410_ _203_ VGND VGND VPWR VPWR _066_ sky130_fd_sc_hd__inv_2
X_341_ _180_ _178_ VGND VGND VPWR VPWR genblk1\[24\].csa.hsum2 sky130_fd_sc_hd__xnor2_1
X_272_ _133_ net4 _137_ net38 VGND VGND VPWR VPWR _002_ sky130_fd_sc_hd__a31o_1
XFILLER_0_24_11 VGND VGND VPWR VPWR sky130_fd_sc_hd__fill_1
XFILLER_0_4_76 VGND VGND VPWR VPWR sky130_fd_sc_hd__decap_8
X_324_ _165_ net15 _169_ _170_ VGND VGND VPWR VPWR _013_ sky130_fd_sc_hd__a31o_1
X_255_ net73 genblk1\[8\].csa.y VGND VGND VPWR VPWR _128_ sky130_fd_sc_hd__and2_1
XFILLER_0_27_130 VGND VGND VPWR VPWR sky130_fd_sc_hd__decap_6
XFILLER_0_18_163 VGND VGND VPWR VPWR sky130_fd_sc_hd__fill_1
XFILLER_0_18_141 VGND VGND VPWR VPWR sky130_fd_sc_hd__fill_2
XFILLER_0_24_111 VGND VGND VPWR VPWR sky130_fd_sc_hd__decap_6
X_238_ genblk1\[5\].csa.sc genblk1\[5\].csa.y VGND VGND VPWR VPWR _117_ sky130_fd_sc_hd__xor2_1
X_307_ genblk1\[18\].csa.sc net60 VGND VGND VPWR VPWR _160_ sky130_fd_sc_hd__and2_1
XFILLER_0_1_55 VGND VGND VPWR VPWR sky130_fd_sc_hd__fill_1
Xhold13 genblk1\[14\].csa.y VGND VGND VPWR VPWR net48 sky130_fd_sc_hd__dlygate4sd3_1
Xhold46 genblk1\[20\].csa.sc VGND VGND VPWR VPWR net81 sky130_fd_sc_hd__dlygate4sd3_1
Xhold24 genblk1\[19\].csa.sc VGND VGND VPWR VPWR net59 sky130_fd_sc_hd__dlygate4sd3_1
Xhold35 _191_ VGND VGND VPWR VPWR net70 sky130_fd_sc_hd__dlygate4sd3_1
XFILLER_0_32_88 VGND VGND VPWR VPWR sky130_fd_sc_hd__fill_2
XFILLER_0_32_55 VGND VGND VPWR VPWR sky130_fd_sc_hd__fill_1
XFILLER_0_32_33 VGND VGND VPWR VPWR sky130_fd_sc_hd__decap_3
XFILLER_0_21_169 VGND VGND VPWR VPWR sky130_fd_sc_hd__decap_6
XFILLER_0_16_67 VPWR VGND VPWR VGND sky130_ef_sc_hd__decap_12
XFILLER_0_32_99 VGND VGND VPWR VPWR sky130_fd_sc_hd__decap_3
XFILLER_0_27_55 VGND VGND VPWR VPWR sky130_fd_sc_hd__fill_1
XTAP_139 VGND VPWR sky130_fd_sc_hd__tapvpwrvgnd_1
XTAP_128 VGND VPWR sky130_fd_sc_hd__tapvpwrvgnd_1
XTAP_117 VGND VPWR sky130_fd_sc_hd__tapvpwrvgnd_1
XTAP_106 VGND VPWR sky130_fd_sc_hd__tapvpwrvgnd_1
XPHY_0 VGND VGND VPWR VPWR sky130_fd_sc_hd__decap_3
XFILLER_0_4_166 VPWR VGND VPWR VGND sky130_ef_sc_hd__decap_12
X_486_ clknet_3_7__leaf_clk genblk1\[20\].csa.hsum2 _076_ VGND VGND VPWR VPWR genblk1\[19\].csa.y
+ sky130_fd_sc_hd__dfrtp_1
XFILLER_0_13_57 VGND VGND VPWR VPWR sky130_fd_sc_hd__fill_2
XFILLER_0_1_169 VPWR VGND VPWR VGND sky130_ef_sc_hd__decap_12
XFILLER_0_1_125 VPWR VGND VPWR VGND sky130_ef_sc_hd__decap_12
X_340_ _154_ net18 VGND VGND VPWR VPWR _180_ sky130_fd_sc_hd__nand2_1
X_271_ genblk1\[11\].csa.sc net37 VGND VGND VPWR VPWR _138_ sky130_fd_sc_hd__and2_1
X_469_ clknet_3_3__leaf_clk _003_ _059_ VGND VGND VPWR VPWR genblk1\[12\].csa.sc sky130_fd_sc_hd__dfrtp_1
X_323_ net47 net52 VGND VGND VPWR VPWR _170_ sky130_fd_sc_hd__and2_1
X_254_ genblk1\[8\].csa.sc genblk1\[8\].csa.y VGND VGND VPWR VPWR _127_ sky130_fd_sc_hd__xor2_1
XFILLER_0_19_109 VGND VGND VPWR VPWR sky130_fd_sc_hd__decap_3
XFILLER_0_24_145 VGND VGND VPWR VPWR sky130_fd_sc_hd__fill_1
X_237_ _116_ _114_ VGND VGND VPWR VPWR genblk1\[4\].csa.hsum2 sky130_fd_sc_hd__xnor2_1
X_306_ genblk1\[18\].csa.sc genblk1\[18\].csa.y VGND VGND VPWR VPWR _159_ sky130_fd_sc_hd__xor2_1
XFILLER_0_30_148 VGND VGND VPWR VPWR sky130_fd_sc_hd__fill_2
XFILLER_0_30_137 VGND VGND VPWR VPWR sky130_fd_sc_hd__decap_3
Xhold14 _147_ VGND VGND VPWR VPWR net49 sky130_fd_sc_hd__dlygate4sd3_1
Xhold36 genblk1\[15\].csa.sc VGND VGND VPWR VPWR net71 sky130_fd_sc_hd__dlygate4sd3_1
XFILLER_0_15_167 VGND VGND VPWR VPWR sky130_fd_sc_hd__fill_1
Xhold25 genblk1\[18\].csa.y VGND VGND VPWR VPWR net60 sky130_fd_sc_hd__dlygate4sd3_1
Xhold47 genblk1\[2\].csa.sc VGND VGND VPWR VPWR net82 sky130_fd_sc_hd__dlygate4sd3_1
XFILLER_0_21_126 VGND VGND VPWR VPWR sky130_fd_sc_hd__fill_2
XFILLER_0_16_79 VGND VGND VPWR VPWR sky130_fd_sc_hd__decap_4
XFILLER_0_32_45 VGND VGND VPWR VPWR sky130_fd_sc_hd__decap_3
XTAP_129 VGND VPWR sky130_fd_sc_hd__tapvpwrvgnd_1
XTAP_118 VGND VPWR sky130_fd_sc_hd__tapvpwrvgnd_1
XTAP_107 VGND VPWR sky130_fd_sc_hd__tapvpwrvgnd_1
XPHY_1 VGND VGND VPWR VPWR sky130_fd_sc_hd__decap_3
XFILLER_0_30_3 VGND VGND VPWR VPWR sky130_fd_sc_hd__fill_2
XFILLER_0_4_178 VPWR VGND VPWR VGND sky130_ef_sc_hd__decap_12
X_485_ clknet_3_7__leaf_clk _012_ _075_ VGND VGND VPWR VPWR genblk1\[20\].csa.sc sky130_fd_sc_hd__dfrtp_1
XFILLER_0_1_137 VPWR VGND VPWR VGND sky130_ef_sc_hd__decap_12
XFILLER_0_0_181 VPWR VGND VPWR VGND sky130_ef_sc_hd__decap_12
X_270_ net58 net37 VGND VGND VPWR VPWR _137_ sky130_fd_sc_hd__xor2_1
X_399_ _202_ VGND VGND VPWR VPWR _056_ sky130_fd_sc_hd__inv_2
X_468_ clknet_3_3__leaf_clk genblk1\[11\].csa.hsum2 _058_ VGND VGND VPWR VPWR genblk1\[10\].csa.y
+ sky130_fd_sc_hd__dfrtp_1
XFILLER_0_4_89 VGND VGND VPWR VPWR sky130_fd_sc_hd__fill_1
X_322_ net47 genblk1\[21\].csa.y VGND VGND VPWR VPWR _169_ sky130_fd_sc_hd__xor2_1
X_253_ _126_ _124_ VGND VGND VPWR VPWR genblk1\[7\].csa.hsum2 sky130_fd_sc_hd__xnor2_1
Xclkbuf_3_7__f_clk clknet_0_clk VGND VGND VPWR VPWR clknet_3_7__leaf_clk sky130_fd_sc_hd__clkbuf_16
XFILLER_0_19_57 VPWR VGND VPWR VGND sky130_ef_sc_hd__decap_12
X_305_ _158_ _156_ VGND VGND VPWR VPWR genblk1\[17\].csa.hsum2 sky130_fd_sc_hd__xnor2_1
X_236_ _098_ net28 VGND VGND VPWR VPWR _116_ sky130_fd_sc_hd__nand2_1
XFILLER_0_1_57 VPWR VGND VPWR VGND sky130_ef_sc_hd__decap_12
Xhold48 genblk1\[23\].csa.sc VGND VGND VPWR VPWR net83 sky130_fd_sc_hd__dlygate4sd3_1
Xhold37 genblk1\[9\].csa.sc VGND VGND VPWR VPWR net72 sky130_fd_sc_hd__dlygate4sd3_1
Xhold15 genblk1\[10\].csa.y VGND VGND VPWR VPWR net50 sky130_fd_sc_hd__dlygate4sd3_1
Xhold26 _160_ VGND VGND VPWR VPWR net61 sky130_fd_sc_hd__dlygate4sd3_1
XFILLER_0_12_149 VGND VGND VPWR VPWR sky130_fd_sc_hd__decap_8
X_219_ genblk1\[1\].csa.sc net39 VGND VGND VPWR VPWR _106_ sky130_fd_sc_hd__and2_1
XFILLER_0_11_193 VGND VGND VPWR VPWR sky130_fd_sc_hd__fill_1
XFILLER_0_27_57 VPWR VGND VPWR VGND sky130_ef_sc_hd__decap_12
Xclkbuf_0_clk clk VGND VGND VPWR VPWR clknet_0_clk sky130_fd_sc_hd__clkbuf_16
XTAP_119 VGND VPWR sky130_fd_sc_hd__tapvpwrvgnd_1
XTAP_108 VGND VPWR sky130_fd_sc_hd__tapvpwrvgnd_1
XPHY_2 VGND VGND VPWR VPWR sky130_fd_sc_hd__decap_3
XFILLER_0_4_135 VGND VGND VPWR VPWR sky130_fd_sc_hd__decap_4
X_484_ clknet_3_5__leaf_clk genblk1\[19\].csa.hsum2 _074_ VGND VGND VPWR VPWR genblk1\[18\].csa.y
+ sky130_fd_sc_hd__dfrtp_1
XFILLER_0_1_105 VGND VGND VPWR VPWR sky130_fd_sc_hd__decap_6
XFILLER_0_1_149 VPWR VGND VPWR VGND sky130_ef_sc_hd__decap_12
XFILLER_0_0_193 VGND VGND VPWR VPWR sky130_fd_sc_hd__fill_1
X_398_ _202_ VGND VGND VPWR VPWR _055_ sky130_fd_sc_hd__inv_2
X_467_ clknet_3_1__leaf_clk _002_ _057_ VGND VGND VPWR VPWR genblk1\[11\].csa.sc sky130_fd_sc_hd__dfrtp_1
X_252_ _122_ net31 VGND VGND VPWR VPWR _126_ sky130_fd_sc_hd__nand2_1
X_321_ _168_ _166_ VGND VGND VPWR VPWR genblk1\[20\].csa.hsum2 sky130_fd_sc_hd__xnor2_1
XFILLER_0_27_177 VGND VGND VPWR VPWR sky130_fd_sc_hd__fill_2
XFILLER_0_27_166 VGND VGND VPWR VPWR sky130_fd_sc_hd__fill_2
X_304_ _154_ net10 VGND VGND VPWR VPWR _158_ sky130_fd_sc_hd__nand2_1
X_235_ _099_ net28 _114_ net46 VGND VGND VPWR VPWR _025_ sky130_fd_sc_hd__a31o_1
XFILLER_0_30_128 VGND VGND VPWR VPWR sky130_fd_sc_hd__fill_2
XFILLER_0_1_69 VPWR VGND VPWR VGND sky130_ef_sc_hd__decap_12
Xhold38 genblk1\[8\].csa.sc VGND VGND VPWR VPWR net73 sky130_fd_sc_hd__dlygate4sd3_1
Xhold16 _134_ VGND VGND VPWR VPWR net51 sky130_fd_sc_hd__dlygate4sd3_1
Xhold27 genblk1\[5\].csa.sc VGND VGND VPWR VPWR net62 sky130_fd_sc_hd__dlygate4sd3_1
Xhold49 genblk1\[17\].csa.y VGND VGND VPWR VPWR net84 sky130_fd_sc_hd__dlygate4sd3_1
XFILLER_0_32_69 VGND VGND VPWR VPWR sky130_fd_sc_hd__decap_3
XFILLER_0_16_15 VGND VGND VPWR VPWR sky130_fd_sc_hd__fill_1
X_218_ genblk1\[1\].csa.sc net39 VGND VGND VPWR VPWR _105_ sky130_fd_sc_hd__xor2_1
XFILLER_0_7_166 VGND VGND VPWR VPWR sky130_fd_sc_hd__fill_2
XFILLER_0_27_69 VGND VGND VPWR VPWR sky130_fd_sc_hd__decap_6
XFILLER_0_27_25 VPWR VGND VPWR VGND sky130_ef_sc_hd__decap_12
XFILLER_0_27_14 VGND VGND VPWR VPWR sky130_fd_sc_hd__fill_1
XTAP_109 VGND VPWR sky130_fd_sc_hd__tapvpwrvgnd_1
XFILLER_0_16_3 VPWR VGND VPWR VGND sky130_ef_sc_hd__decap_12
XPHY_3 VGND VGND VPWR VPWR sky130_fd_sc_hd__decap_3
XFILLER_0_7_57 VGND VGND VPWR VPWR sky130_fd_sc_hd__decap_8
X_483_ clknet_3_4__leaf_clk _010_ _073_ VGND VGND VPWR VPWR genblk1\[19\].csa.sc sky130_fd_sc_hd__dfrtp_1
XFILLER_0_13_49 VGND VGND VPWR VPWR sky130_fd_sc_hd__fill_1
X_397_ _202_ VGND VGND VPWR VPWR _054_ sky130_fd_sc_hd__inv_2
XFILLER_0_24_37 VPWR VGND VPWR VGND sky130_ef_sc_hd__decap_12
X_466_ clknet_3_2__leaf_clk genblk1\[10\].csa.hsum2 _056_ VGND VGND VPWR VPWR genblk1\[10\].csa.sum
+ sky130_fd_sc_hd__dfrtp_1
XFILLER_0_5_3 VPWR VGND VPWR VGND sky130_ef_sc_hd__decap_12
XFILLER_0_14_81 VGND VGND VPWR VPWR sky130_fd_sc_hd__decap_3
XFILLER_0_4_36 VPWR VGND VPWR VGND sky130_ef_sc_hd__decap_12
X_251_ _099_ net31 _124_ _125_ VGND VGND VPWR VPWR _028_ sky130_fd_sc_hd__a31o_1
X_320_ _154_ net14 VGND VGND VPWR VPWR _168_ sky130_fd_sc_hd__nand2_1
XFILLER_0_19_15 VGND VGND VPWR VPWR sky130_fd_sc_hd__fill_1
X_449_ clknet_3_0__leaf_clk _022_ _039_ VGND VGND VPWR VPWR genblk1\[2\].csa.sc sky130_fd_sc_hd__dfrtp_1
XFILLER_0_18_112 VPWR VGND VPWR VGND sky130_ef_sc_hd__decap_12
XFILLER_0_24_159 VPWR VGND VPWR VGND sky130_ef_sc_hd__decap_12
X_303_ _133_ net10 _156_ _157_ VGND VGND VPWR VPWR _008_ sky130_fd_sc_hd__a31o_1
X_234_ genblk1\[4\].csa.sc net45 VGND VGND VPWR VPWR _115_ sky130_fd_sc_hd__and2_1
XFILLER_0_1_15 VPWR VGND VPWR VGND sky130_ef_sc_hd__decap_12
Xhold17 genblk1\[21\].csa.y VGND VGND VPWR VPWR net52 sky130_fd_sc_hd__dlygate4sd3_1
Xhold39 _128_ VGND VGND VPWR VPWR net74 sky130_fd_sc_hd__dlygate4sd3_1
XFILLER_0_23_181 VPWR VGND VPWR VGND sky130_ef_sc_hd__decap_12
Xhold28 _118_ VGND VGND VPWR VPWR net63 sky130_fd_sc_hd__dlygate4sd3_1
XFILLER_0_15_159 VGND VGND VPWR VPWR sky130_fd_sc_hd__decap_8
XFILLER_0_32_15 VGND VGND VPWR VPWR sky130_fd_sc_hd__decap_3
XFILLER_0_21_118 VGND VGND VPWR VPWR sky130_fd_sc_hd__decap_8
XFILLER_0_16_27 VGND VGND VPWR VPWR sky130_fd_sc_hd__fill_1
X_217_ _104_ VGND VGND VPWR VPWR _031_ sky130_fd_sc_hd__clkbuf_1
XFILLER_0_32_9 VGND VGND VPWR VPWR sky130_fd_sc_hd__decap_3
XFILLER_0_27_37 VGND VGND VPWR VPWR sky130_fd_sc_hd__fill_1
XPHY_4 VGND VGND VPWR VPWR sky130_fd_sc_hd__decap_3
XFILLER_0_7_36 VGND VGND VPWR VPWR sky130_fd_sc_hd__fill_1
XFILLER_0_3_181 VPWR VGND VPWR VGND sky130_ef_sc_hd__decap_12
X_482_ clknet_3_1__leaf_clk genblk1\[18\].csa.hsum2 _072_ VGND VGND VPWR VPWR genblk1\[17\].csa.y
+ sky130_fd_sc_hd__dfrtp_1
X_396_ _202_ VGND VGND VPWR VPWR _053_ sky130_fd_sc_hd__inv_2
XFILLER_0_24_49 VPWR VGND VPWR VGND sky130_ef_sc_hd__decap_12
XFILLER_0_24_27 VGND VGND VPWR VPWR sky130_fd_sc_hd__fill_1
X_465_ clknet_3_3__leaf_clk _001_ _055_ VGND VGND VPWR VPWR genblk1\[10\].csa.sc sky130_fd_sc_hd__dfrtp_1
XFILLER_0_4_48 VGND VGND VPWR VPWR sky130_fd_sc_hd__fill_1
X_250_ net68 genblk1\[7\].csa.y VGND VGND VPWR VPWR _125_ sky130_fd_sc_hd__and2_1
XFILLER_0_10_29 VGND VGND VPWR VPWR sky130_fd_sc_hd__decap_6
XFILLER_0_27_113 VGND VGND VPWR VPWR sky130_fd_sc_hd__decap_4
X_379_ _200_ VGND VGND VPWR VPWR _038_ sky130_fd_sc_hd__inv_2
X_448_ clknet_3_0__leaf_clk genblk1\[1\].csa.hsum2 _038_ VGND VGND VPWR VPWR csa0.y
+ sky130_fd_sc_hd__dfrtp_1
XFILLER_0_18_124 VGND VGND VPWR VPWR sky130_fd_sc_hd__decap_3
XFILLER_0_24_105 VGND VGND VPWR VPWR sky130_fd_sc_hd__decap_3
X_233_ genblk1\[4\].csa.sc genblk1\[4\].csa.y VGND VGND VPWR VPWR _114_ sky130_fd_sc_hd__xor2_1
X_302_ net66 net87 VGND VGND VPWR VPWR _157_ sky130_fd_sc_hd__and2_1
XFILLER_0_1_27 VPWR VGND VPWR VGND sky130_ef_sc_hd__decap_12
XFILLER_0_23_193 VGND VGND VPWR VPWR sky130_fd_sc_hd__fill_1
Xhold18 genblk1\[10\].csa.sc VGND VGND VPWR VPWR net53 sky130_fd_sc_hd__dlygate4sd3_1
Xhold29 csa0.sc VGND VGND VPWR VPWR net64 sky130_fd_sc_hd__dlygate4sd3_1
XFILLER_0_32_27 VGND VGND VPWR VPWR sky130_fd_sc_hd__fill_1
XFILLER_0_14_193 VGND VGND VPWR VPWR sky130_fd_sc_hd__fill_1
XFILLER_0_20_141 VPWR VGND VPWR VGND sky130_ef_sc_hd__decap_12
XFILLER_0_7_102 VGND VGND VPWR VPWR sky130_fd_sc_hd__fill_1
X_216_ _032_ _103_ VGND VGND VPWR VPWR _104_ sky130_fd_sc_hd__and2_1
XPHY_5 VGND VGND VPWR VPWR sky130_fd_sc_hd__decap_3
XFILLER_0_4_105 VPWR VGND VPWR VGND sky130_ef_sc_hd__decap_12
XFILLER_0_4_149 VGND VGND VPWR VPWR sky130_fd_sc_hd__fill_2
XFILLER_0_3_193 VGND VGND VPWR VPWR sky130_fd_sc_hd__fill_1
X_481_ clknet_3_4__leaf_clk _009_ _071_ VGND VGND VPWR VPWR genblk1\[18\].csa.sc sky130_fd_sc_hd__dfrtp_1
XFILLER_0_21_3 VGND VGND VPWR VPWR sky130_fd_sc_hd__decap_8
XFILLER_0_0_141 VPWR VGND VPWR VGND sky130_ef_sc_hd__decap_12
X_464_ clknet_3_2__leaf_clk genblk1\[9\].csa.hsum2 _054_ VGND VGND VPWR VPWR genblk1\[8\].csa.y
+ sky130_fd_sc_hd__dfrtp_1
Xclkbuf_3_2__f_clk clknet_0_clk VGND VGND VPWR VPWR clknet_3_2__leaf_clk sky130_fd_sc_hd__clkbuf_16
X_395_ _199_ VGND VGND VPWR VPWR _202_ sky130_fd_sc_hd__buf_4
XFILLER_0_4_27 VGND VGND VPWR VPWR sky130_fd_sc_hd__fill_1
XFILLER_0_27_169 VGND VGND VPWR VPWR sky130_fd_sc_hd__decap_8
X_378_ _200_ VGND VGND VPWR VPWR _037_ sky130_fd_sc_hd__inv_2
X_447_ clknet_3_0__leaf_clk _011_ _037_ VGND VGND VPWR VPWR genblk1\[1\].csa.sc sky130_fd_sc_hd__dfrtp_1
X_301_ net66 net84 VGND VGND VPWR VPWR _156_ sky130_fd_sc_hd__xor2_1
X_232_ _113_ _111_ VGND VGND VPWR VPWR genblk1\[3\].csa.hsum2 sky130_fd_sc_hd__xnor2_1
Xhold19 genblk1\[25\].csa.sc VGND VGND VPWR VPWR net54 sky130_fd_sc_hd__dlygate4sd3_1
XFILLER_0_1_39 VPWR VGND VPWR VGND sky130_ef_sc_hd__decap_12
XFILLER_0_21_109 VGND VGND VPWR VPWR sky130_fd_sc_hd__decap_3
XFILLER_0_16_29 VPWR VGND VPWR VGND sky130_ef_sc_hd__decap_12
XFILLER_0_32_39 VGND VGND VPWR VPWR sky130_fd_sc_hd__decap_3
XFILLER_0_20_153 VPWR VGND VPWR VGND sky130_ef_sc_hd__decap_12
X_215_ _097_ net26 tcmp.z VGND VGND VPWR VPWR _103_ sky130_fd_sc_hd__nand3_1
XFILLER_0_22_72 VPWR VGND VPWR VGND sky130_ef_sc_hd__decap_12
XPHY_6 VGND VGND VPWR VPWR sky130_fd_sc_hd__decap_3
XFILLER_0_4_117 VPWR VGND VPWR VGND sky130_ef_sc_hd__decap_12
XFILLER_0_4_139 VGND VGND VPWR VPWR sky130_fd_sc_hd__fill_1
X_480_ clknet_3_6__leaf_clk genblk1\[17\].csa.hsum2 _070_ VGND VGND VPWR VPWR genblk1\[16\].csa.y
+ sky130_fd_sc_hd__dfrtp_1
XFILLER_0_0_153 VGND VGND VPWR VPWR sky130_fd_sc_hd__fill_1
XFILLER_0_8_81 VGND VGND VPWR VPWR sky130_fd_sc_hd__decap_3
X_394_ _201_ VGND VGND VPWR VPWR _052_ sky130_fd_sc_hd__inv_2
X_463_ clknet_3_2__leaf_clk _030_ _053_ VGND VGND VPWR VPWR genblk1\[9\].csa.sc sky130_fd_sc_hd__dfrtp_1
XFILLER_0_30_83 VGND VGND VPWR VPWR sky130_fd_sc_hd__fill_1
XFILLER_0_3_3 VPWR VGND VPWR VGND sky130_ef_sc_hd__decap_12
X_377_ _200_ VGND VGND VPWR VPWR _036_ sky130_fd_sc_hd__inv_2
X_446_ clknet_3_1__leaf_clk _031_ _036_ VGND VGND VPWR VPWR genblk1\[30\].csa.y sky130_fd_sc_hd__dfrtp_1
XFILLER_0_25_83 VGND VGND VPWR VPWR sky130_fd_sc_hd__fill_2
X_300_ _155_ _152_ VGND VGND VPWR VPWR genblk1\[16\].csa.hsum2 sky130_fd_sc_hd__xnor2_1
XFILLER_0_21_19 VPWR VGND VPWR VGND sky130_ef_sc_hd__decap_12
X_231_ _098_ net27 VGND VGND VPWR VPWR _113_ sky130_fd_sc_hd__nand2_1